packages/i2x/i2x-0.0.4.tar.gz/i2x-0.0.4/src/i2x/models/ieee_lvn/ieee390par_VLN.Txt

SYMMETRICAL COMPONENT VOLTAGES BY BUS (for 3-phase buses)

Bus   Mag:   V1 (kV)    p.u.     V2 (kV)   %V2/V1    V0 (kV)    %V0/V1

p1       139.4       1.05  0.0002266  0.0001625 3.66E-007 2.626E-007
p2       139.4       1.05  0.0003651  0.0002619 9.851E-005 7.066E-005
p3       139.4       1.05   0.000452  0.0003242 0.0001474 0.0001058
p7       139.4       1.05   0.000453   0.000325  0.000148 0.0001061
p6       8.179      1.027   0.002084    0.02548 1.552E-006 1.897E-005
p11      8.178      1.026   0.002087    0.02552 1.542E-006 1.885E-005
p27      8.178      1.026   0.002089    0.02554 1.543E-006 1.886E-005
p44      8.178      1.026   0.002083    0.02546 1.542E-006 1.886E-005
p45      8.178      1.026   0.002082    0.02546 1.537E-006 1.88E-005
p62      8.178      1.026   0.002081    0.02545 1.538E-006 1.88E-005
p10      8.176      1.026   0.002073    0.02535 6.223E-007 7.612E-006
p81      8.176      1.026   0.002077     0.0254 6.081E-007 7.437E-006
p97      8.176      1.026   0.002078    0.02541 6.074E-007 7.429E-006
p116     8.176      1.026   0.002071    0.02533 6.099E-007 7.46E-006
p117     8.176      1.026    0.00207    0.02532 6.039E-007 7.387E-006
p134     8.176      1.026   0.002069    0.02531 6.034E-007 7.381E-006
p12      8.178      1.026   0.002087    0.02552 1.542E-006 1.885E-005
p13       8.16      1.024   0.002237    0.02741 1.149E-006 1.409E-005
p14       8.16      1.024   0.002237    0.02742 1.148E-006 1.407E-005
p15      8.159      1.024   0.002242    0.02748 1.141E-006 1.398E-005
p16      8.159      1.024   0.002251    0.02758 1.138E-006 1.394E-005
p17      8.159      1.024   0.002251    0.02759 1.137E-006 1.393E-005
p18      8.159      1.024   0.002239    0.02745 1.136E-006 1.392E-005
p19      8.159      1.024    0.00224    0.02745 1.135E-006 1.391E-005
p20      8.159      1.024   0.002236    0.02741 1.132E-006 1.387E-005
p21      8.158      1.024   0.002233    0.02737 1.13E-006 1.385E-005
p22      8.158      1.024   0.002231    0.02735 1.128E-006 1.383E-005
p23      8.158      1.024   0.002236    0.02741 1.13E-006 1.385E-005
p24      8.158      1.024   0.002236    0.02741 1.129E-006 1.384E-005
p25      8.158      1.024   0.002236    0.02741 1.129E-006 1.384E-005
p26      8.158      1.024   0.002237    0.02741 1.128E-006 1.383E-005
p28      8.178      1.026   0.002089    0.02554 1.543E-006 1.886E-005
p29      8.162      1.024    0.00234    0.02867 1.186E-006 1.453E-005
p30      8.162      1.024   0.002341    0.02868 1.185E-006 1.452E-005
p31      8.161      1.024    0.00235    0.02879 1.177E-006 1.443E-005
p32      8.161      1.024    0.00235     0.0288 1.176E-006 1.441E-005
p33      8.161      1.024   0.002359    0.02891 1.17E-006 1.434E-005
p34       8.16      1.024   0.002358     0.0289 1.168E-006 1.432E-005
p35       8.16      1.024   0.002369    0.02903 1.165E-006 1.428E-005
p36       8.16      1.024   0.002369    0.02903 1.164E-006 1.427E-005
p37       8.16      1.024   0.002379    0.02916 1.162E-006 1.424E-005
p38       8.16      1.024   0.002379    0.02916 1.161E-006 1.423E-005
p39       8.16      1.024   0.002389    0.02928 1.159E-006 1.42E-005
p40      8.159      1.024   0.002399     0.0294 1.157E-006 1.418E-005
p41      8.159      1.024   0.002408    0.02951 1.156E-006 1.417E-005
p42       8.16      1.024    0.00239     0.0293 1.158E-006 1.419E-005
p43      8.159      1.024   0.002391    0.02931 1.157E-006 1.418E-005
p46      8.178      1.026   0.002082    0.02546 1.537E-006 1.88E-005
p47       8.16      1.024   0.002064     0.0253 1.156E-006 1.417E-005
p48      8.159      1.024   0.002064    0.02529 1.155E-006 1.416E-005
p49      8.159      1.024   0.002064     0.0253 1.148E-006 1.407E-005
p50      8.159      1.024   0.002064     0.0253 1.147E-006 1.406E-005
p51      8.158      1.024   0.002064     0.0253 1.142E-006 1.399E-005
p52      8.158      1.024   0.002064    0.02529 1.141E-006 1.399E-005
p53      8.158      1.024   0.002064     0.0253 1.136E-006 1.393E-005
p54      8.157      1.024   0.002064     0.0253 1.132E-006 1.388E-005
p55      8.157      1.024   0.002063    0.02529 1.13E-006 1.386E-005
p56      8.157      1.024   0.002063    0.02529 1.13E-006 1.385E-005
p57      8.158      1.024   0.002065    0.02531 1.134E-006 1.39E-005
p58      8.157      1.024   0.002064     0.0253 1.133E-006 1.389E-005
p59      8.157      1.024   0.002066    0.02532 1.133E-006 1.389E-005
p60      8.157      1.024   0.002067    0.02534 1.132E-006 1.388E-005
p61      8.157      1.024   0.002068    0.02535 1.131E-006 1.386E-005
p63      8.178      1.026   0.002081    0.02545 1.538E-006 1.88E-005
p64      8.161      1.024   0.001966    0.02409 1.189E-006 1.456E-005
p65      8.161      1.024   0.001965    0.02408 1.188E-006 1.455E-005
p66      8.161      1.024   0.001962    0.02404 1.18E-006 1.446E-005
p67      8.161      1.024   0.001962    0.02404 1.179E-006 1.445E-005
p68       8.16      1.024   0.001957    0.02399 1.174E-006 1.438E-005
p69       8.16      1.024   0.001956    0.02397 1.173E-006 1.438E-005
p70       8.16      1.024   0.001954    0.02395 1.167E-006 1.431E-005
p71      8.159      1.024   0.001954    0.02395 1.167E-006 1.43E-005
p72      8.159      1.024   0.001952    0.02392 1.162E-006 1.424E-005
p73      8.159      1.024    0.00195     0.0239 1.16E-006 1.421E-005
p74      8.159      1.024   0.001948    0.02387 1.158E-006 1.42E-005
p75      8.159      1.024   0.001951    0.02392 1.159E-006 1.421E-005
p76      8.159      1.024    0.00195     0.0239 1.158E-006 1.419E-005
p77      8.159      1.024   0.001952    0.02392 1.158E-006 1.419E-005
p78      8.159      1.024   0.001952    0.02392 1.157E-006 1.418E-005
p79      8.159      1.024   0.001953    0.02394 1.157E-006 1.418E-005
p80      8.159      1.024   0.001954    0.02395 1.156E-006 1.417E-005
p82      8.176      1.026   0.002077     0.0254 6.081E-007 7.437E-006
p83      8.157      1.024   0.002278    0.02793 1.101E-007 1.35E-006
p84      8.157      1.024   0.002279    0.02793 1.126E-007 1.381E-006
p85      8.157      1.024   0.002286    0.02803 1.356E-007 1.662E-006
p86      8.156      1.024   0.002295    0.02814 1.455E-007 1.784E-006
p87      8.156      1.024   0.002303    0.02824 1.527E-007 1.872E-006
p88      8.156      1.024   0.002285    0.02802 1.512E-007 1.854E-006
p89      8.156      1.024   0.002285    0.02801 1.542E-007 1.891E-006
p90      8.156      1.024   0.002284      0.028 1.639E-007 2.01E-006
p91      8.156      1.024   0.002282    0.02798 1.713E-007 2.101E-006
p92      8.156      1.024   0.002281    0.02797 1.757E-007 2.155E-006
p93      8.156      1.024   0.002285    0.02801 1.692E-007 2.074E-006
p94      8.156      1.024   0.002285    0.02802 1.718E-007 2.106E-006
p95      8.156      1.024   0.002285    0.02802 1.718E-007 2.107E-006
p96      8.156      1.024   0.002286    0.02803 1.745E-007 2.139E-006
p98      8.176      1.026   0.002078    0.02541 6.074E-007 7.429E-006
p99      8.156      1.024   0.002334    0.02862 1.46E-007 1.79E-006
p100     8.156      1.024   0.002334    0.02862 1.486E-007 1.822E-006
p101     8.156      1.024   0.002344    0.02874 1.73E-007 2.121E-006
p102     8.155      1.024   0.002344    0.02875 1.756E-007 2.153E-006
p103     8.155      1.024   0.002354    0.02886 1.974E-007 2.421E-006
p104     8.155      1.024   0.002354    0.02887 2.021E-007 2.479E-006
p105     8.154      1.023   0.002362    0.02897 2.171E-007 2.663E-006
p106     8.154      1.023   0.002362    0.02896 2.249E-007 2.758E-006
p107     8.154      1.023   0.002362    0.02896 2.297E-007 2.817E-006
p108     8.154      1.023   0.002372    0.02909 2.291E-007 2.81E-006
p109     8.154      1.023   0.002371    0.02908 2.317E-007 2.841E-006
p110     8.154      1.023   0.002382    0.02921 2.386E-007 2.926E-006
p111     8.154      1.023    0.00239    0.02932 2.423E-007 2.972E-006
p112     8.154      1.023   0.002382    0.02922 2.443E-007 2.996E-006
p113     8.154      1.023   0.002383    0.02922 2.473E-007 3.033E-006
p114     8.154      1.023   0.002383    0.02923 2.471E-007 3.031E-006
p115     8.154      1.023   0.002384    0.02924 2.499E-007 3.065E-006
p118     8.176      1.026    0.00207    0.02532 6.039E-007 7.387E-006
p119      8.16      1.024   0.002027    0.02484 1.74E-008 2.133E-007
p120      8.16      1.024   0.002026    0.02483 1.693E-008 2.074E-007
p121     8.159      1.024   0.002025    0.02482 2.397E-008 2.937E-007
p122     8.159      1.024   0.002025    0.02481 2.596E-008 3.182E-007
p123     8.159      1.024   0.002025    0.02482 3.943E-008 4.833E-007
p124     8.159      1.024   0.002026    0.02483 4.382E-008 5.371E-007
p125     8.159      1.024   0.002024     0.0248 5.224E-008 6.403E-007
p126     8.159      1.024   0.002023    0.02479 5.499E-008 6.74E-007
p127     8.158      1.024   0.002023     0.0248 6.263E-008 7.677E-007
p128     8.158      1.024   0.002023    0.02479 6.543E-008 8.02E-007
p129     8.158      1.024   0.002022    0.02479 7.035E-008 8.623E-007
p130     8.158      1.024   0.002022    0.02479 7.543E-008 9.246E-007
p131     8.158      1.024   0.002023    0.02479 7.769E-008 9.524E-007
p132     8.158      1.024   0.002022    0.02479 7.303E-008 8.952E-007
p133     8.158      1.024   0.002022    0.02478 7.571E-008 9.281E-007
p135     8.176      1.026   0.002069    0.02531 6.034E-007 7.381E-006
p136     8.159      1.024   0.001926    0.02361 5.338E-008 6.543E-007
p137     8.158      1.024   0.001926     0.0236 5.563E-008 6.819E-007
p138     8.158      1.024   0.001921    0.02355 7.392E-008 9.062E-007
p139     8.158      1.024    0.00192    0.02353 7.705E-008 9.445E-007
p140     8.158      1.024    0.00192    0.02353 7.922E-008 9.712E-007
p141     8.157      1.024   0.001917     0.0235 9.248E-008 1.134E-006
p142     8.157      1.024   0.001917     0.0235 9.527E-008 1.168E-006
p143     8.157      1.024   0.001913    0.02346 1.087E-007 1.332E-006
p144     8.157      1.024   0.001911    0.02343 1.193E-007 1.463E-006
p145     8.156      1.024    0.00191    0.02342 1.267E-007 1.553E-006
p146     8.156      1.024   0.001909    0.02341 1.311E-007 1.607E-006
p147     8.157      1.024   0.001912    0.02344 1.143E-007 1.402E-006
p148     8.157      1.024   0.001911    0.02343 1.174E-007 1.439E-006
p149     8.157      1.024   0.001911    0.02343 1.17E-007 1.434E-006
p150     8.157      1.024   0.001911    0.02343 1.196E-007 1.467E-006
s194    0.2798       1.01  0.0008142      0.291 0.0001227   0.04384
s193    0.2797      1.009  0.0008157     0.2916 0.0001246   0.04454
s195    0.2798       1.01  0.0008138     0.2909 0.0001228    0.0439
s199    0.2796      1.009   0.000276    0.09869 8.977E-005    0.0321
s198    0.2795      1.009  0.0002793    0.09991 8.242E-005   0.02949
s200    0.2796      1.009  0.0002759    0.09867 8.969E-005   0.03207
s204    0.2786      1.005  0.0008248     0.2961  0.000252   0.09047
s203    0.2784      1.005   0.000836     0.3003 0.0002808    0.1008
s205    0.2786      1.005  0.0008247      0.296  0.000252   0.09045
s206    0.2786      1.005  0.0008247      0.296 0.0002522   0.09052
s211    0.2792      1.007  3.697E-005    0.01324 0.0001159   0.04151
s210     0.279      1.007  4.948E-005    0.01773 0.0001264   0.04531
s212    0.2792      1.007  3.703E-005    0.01327 0.0001158   0.04147
s213    0.2792      1.007  3.721E-005    0.01333 0.0001158   0.04149
s218    0.2768      0.999  0.0002235    0.08072 0.0001287   0.04648
s217    0.2767     0.9984  0.0002219     0.0802 0.0001178   0.04257
s219    0.2768      0.999  0.0002232    0.08061 0.0001285   0.04641
s220    0.2768      0.999  0.0002233    0.08065 0.0001282   0.04631
s225    0.2782      1.004  0.0003848     0.1383 0.0003449     0.124
s224     0.278      1.003  0.0003838     0.1381 0.0003728    0.1341
s226    0.2782      1.004  0.0003849     0.1383 0.0003449     0.124
s227    0.2782      1.004  0.0003849     0.1383 0.0003451    0.1241
s232    0.2823      1.019  7.208E-005    0.02553 7.968E-005   0.02822
s231    0.2823      1.019  7.595E-005    0.02691 7.865E-005   0.02786
s233    0.2823      1.019  7.227E-005     0.0256 7.947E-005   0.02815
s237    0.2758     0.9952  0.0006257     0.2269  0.000165   0.05983
s236    0.2755     0.9943  0.0006186     0.2245 0.0001443   0.05237
s239    0.2758     0.9951  0.0006257     0.2269 0.0001647   0.05972
s1      0.1197     0.9971  9.052E-005    0.07559 0.0001131   0.09446
s2      0.1201          1  5.631E-005    0.04689 0.0001005   0.08371
s3      0.1203      1.002  3.418E-005    0.02841 7.967E-005   0.06623
s4      0.1206      1.004  4.126E-006   0.003421 4.123E-005   0.03418
s5      0.1201     0.9999  1.469E-005    0.01224 0.0001258    0.1048
s6        0.12     0.9994  1.825E-005     0.0152 0.0001306    0.1088
s7      0.1203      1.001  3.709E-005    0.03085 8.277E-005   0.06883
s8      0.1204      1.003  4.216E-005    0.03501 4.889E-005    0.0406
s9      0.1207      1.005  5.51E-005    0.04564 1.263E-005   0.01046
s10     0.1202      1.001  3.549E-005    0.02953 7.323E-005   0.06093
s11     0.1201          1  4.553E-005    0.03791 7.867E-005    0.0655
s12     0.1203      1.002  5.206E-005    0.04327 8.581E-005   0.07132
s13     0.1205      1.003  5.459E-005    0.04531 5.775E-005   0.04794
s14     0.1207      1.005  6.557E-005    0.05431 3.676E-005   0.03045
s15     0.1201          1  4.846E-005    0.04035 9.131E-005   0.07603
s16     0.1199     0.9984  2.813E-005    0.02347 0.0001012   0.08445
s17     0.1199     0.9988  3.849E-006   0.003209 6.482E-005   0.05404
s18     0.1201     0.9999  1.063E-005   0.008852 4.664E-005   0.03884
s19     0.1203      1.002  2.863E-005    0.02379 9.152E-006  0.007607
s20     0.1198     0.9974  5.485E-005     0.0458 7.286E-005   0.06083
s21     0.1197     0.9967  8.912E-005    0.07446 0.0001045   0.08729
s42     0.1199     0.9981  0.0001096    0.09145 9.33E-005   0.07784
s43     0.1204      1.003  4.927E-005    0.04093 4.352E-005   0.03615
s44     0.1207      1.005  6.072E-005    0.05029 3.935E-005   0.03259
s45     0.1204      1.003  5.266E-005    0.04372 4.488E-005   0.03727
s46     0.1199     0.9983  5.997E-005    0.05002 0.0001194   0.09958
s47     0.1193     0.9936  9.015E-005    0.07555  0.000248    0.2078
s48     0.1196     0.9963  9.113E-005    0.07617 0.0001695    0.1417
s49     0.1202      1.001  2.911E-005    0.02422 7.825E-005   0.06512
s50     0.1202      1.001  2.486E-005    0.02069 2.22E-005   0.01847
s51     0.1197     0.9965  6.114E-006   0.005109 5.06E-005   0.04228
s52     0.1194     0.9941  7.32E-005    0.06132 0.0001392    0.1166
s53     0.1198     0.9979  5.248E-005    0.04379 0.0001013   0.08451
s54     0.1203      1.002  4.779E-005    0.03972 2.762E-005   0.02295
s55     0.1203      1.002  4.802E-005    0.03993  2.9E-005   0.02411
s56     0.1198     0.9972  3.015E-005    0.02518 0.0001153   0.09626
s57     0.1193     0.9937  5.678E-005    0.04758 0.0001744    0.1461
s58       0.12     0.9993  4.932E-005     0.0411 0.0001296     0.108
s59     0.1206      1.004  1.445E-005    0.01199 6.985E-005   0.05794
s60      0.121      1.007  2.011E-005    0.01663 3.253E-005   0.02689
s61     0.1207      1.005  1.489E-005    0.01234 3.76E-005   0.03116
s62     0.1203      1.002  4.115E-005     0.0342 8.398E-005    0.0698
s83     0.1202      1.001  4.783E-005    0.03979 8.029E-005   0.06679
s84     0.1203      1.002  3.12E-005    0.02592 8.28E-005    0.0688
s85     0.1207      1.005  8.277E-006   0.006855 2.78E-005   0.02302
s86     0.1206      1.004  4.005E-005    0.03321 3.987E-005   0.03305
s87     0.1202      1.001  6.086E-005    0.05065 7.431E-005   0.06185
s88     0.1196     0.9956  0.0001022    0.08546 0.0001108   0.09267
s89     0.1199     0.9983  5.844E-005    0.04874 6.936E-005   0.05785
s90     0.1204      1.002  6.009E-005    0.04992 1.506E-005   0.01251
s91     0.1204      1.002  6.665E-005    0.05537 4.794E-005   0.03983
s92     0.1199     0.9982  6.786E-005    0.05661 0.0001138    0.0949
s93     0.1196     0.9956  6.459E-005    0.05403 0.0001923    0.1609
s94       0.12     0.9994  6.977E-005    0.05814 9.35E-005   0.07791
s95     0.1205      1.004  8.364E-005     0.0694 3.242E-005    0.0269
s96     0.1207      1.005  9.255E-005    0.07669 4.324E-005   0.03583
s97     0.1203      1.002  8.522E-005    0.07085 0.0001263     0.105
s98     0.1199     0.9981  8.579E-005    0.07157 0.0001465    0.1222
s99     0.1205      1.003  6.903E-005     0.0573 7.328E-005   0.06083
s100    0.1209      1.007  5.697E-005    0.04711 2.975E-005    0.0246
s101    0.1211      1.008  4.973E-005    0.04108 1.321E-005   0.01091
s102    0.1207      1.005  4.481E-005    0.03712 6.342E-005   0.05253
s103    0.1204      1.002  2.767E-005    0.02299 8.348E-005   0.06936
s124    0.1206      1.005  5.401E-005    0.04477 3.776E-005    0.0313
s125    0.1208      1.006  4.928E-005    0.04079 1.343E-005   0.01112
s126     0.121      1.007  4.716E-005    0.03898 1.453E-005   0.01202
s127      0.12     0.9994  9.015E-005    0.07512 0.0001008   0.08396
s128    0.1199     0.9984  9.574E-005    0.07985 0.0001143   0.09535
s129    0.1199     0.9985  7.438E-005    0.06203 0.0001217    0.1015
s130      0.12     0.9997  7.857E-005    0.06545  0.000116   0.09662
s131    0.1207      1.005  7.378E-005    0.06113 3.889E-005   0.03222
s132    0.1204      1.003  8.399E-005    0.06975 2.657E-005   0.02206
s133    0.1203      1.001  9.352E-005    0.07776 1.808E-005   0.01504
s134    0.1201          1  9.545E-005    0.07949 5.882E-005   0.04898
s135    0.1202      1.001  7.534E-005    0.06268 6.252E-005   0.05201
s136    0.1208      1.006  7.699E-005    0.06374 3.071E-005   0.02543
s137    0.1205      1.004  6.171E-005     0.0512 2.472E-005   0.02051
s138    0.1203      1.002  5.222E-005    0.04339 4.484E-005   0.03726
s139    0.1201          1  1.41E-005    0.01174 8.279E-005   0.06892
s140    0.1202      1.001  4.431E-006   0.003687 6.763E-005   0.05627
s141    0.1207      1.005  3.577E-005    0.02964 2.006E-005   0.01662
s142    0.1204      1.002  1.743E-005    0.01448 6.999E-005   0.05814
s143    0.1202      1.001  2.024E-005    0.01684 0.0001032   0.08588
s144    0.1199     0.9985  2.89E-005     0.0241  0.000158    0.1318
s22     0.1199     0.9985  8.393E-005    0.06999 9.745E-005   0.08127
s27     0.1206      1.004  4.436E-005     0.0368 1.887E-005   0.01565
s32     0.1203      1.001  5.914E-005    0.04917 3.86E-005    0.0321
s37     0.1201          1  7.571E-005    0.06304 6.697E-005   0.05577
s63       0.12     0.9996  9.955E-005    0.08293 4.616E-005   0.03845
s68     0.1207      1.005  6.579E-005    0.05451 2.185E-005    0.0181
s73     0.1204      1.003  6.848E-005    0.05686 3.131E-005     0.026
s78     0.1203      1.002  6.779E-005    0.05635 4.834E-005   0.04019
s104    0.1205      1.003  3.094E-005    0.02568 6.094E-005   0.05059
s109    0.1212      1.009  4.008E-005    0.03308 1.399E-005   0.01155
s114     0.121      1.007  2.552E-005     0.0211 1.487E-005   0.01229
s119    0.1209      1.007  2.393E-005    0.01979 1.887E-005    0.0156
s23     0.1201          1  3.384E-005    0.02817 0.0001209    0.1006
s28     0.1205      1.004  6.086E-005    0.05049 4.463E-005   0.03702
s33     0.1203      1.002  3.997E-005    0.03322 7.325E-005   0.06088
s38     0.1198     0.9975  2.919E-005    0.02437 0.0001774    0.1481
s64     0.1198     0.9973  8.761E-005    0.07316 0.0001911    0.1596
s69     0.1203      1.002  5.737E-005    0.04769 9.139E-005   0.07597
s74     0.1204      1.003  4.946E-005    0.04106 3.503E-005   0.02909
s79       0.12     0.9993  7.165E-005     0.0597 6.14E-005   0.05116
s105    0.1201          1   0.000112    0.09324 8.784E-005   0.07314
s110    0.1206      1.004  8.881E-005    0.07366 2.87E-005   0.02381
s115    0.1206      1.005  7.32E-005    0.06068 4.882E-005   0.04047
s120    0.1202      1.001  7.812E-005    0.06498 7.454E-005     0.062
s24     0.1203      1.002  5.192E-005    0.04316 3.541E-005   0.02944
s29     0.1207      1.005  6.413E-005    0.05315 3.291E-005   0.02727
s34     0.1204      1.003  4.427E-005    0.03676 5.453E-005   0.04527
s39     0.1199     0.9984  7.819E-005    0.06521 8.163E-005   0.06808
s65     0.1198     0.9972  6.188E-005    0.05168 0.0001022   0.08532
s70     0.1203      1.001  1.079E-005    0.00897 2.798E-005   0.02326
s75     0.1203      1.002  1.693E-005    0.01407 5.584E-005   0.04641
s80     0.1198     0.9978  2.875E-005    0.02399 0.0001476    0.1232
s106      0.12     0.9992  9.108E-005    0.07591 9.294E-005   0.07745
s111    0.1205      1.003  0.0001066    0.08843 9.525E-006  0.007904
s116    0.1207      1.005  0.0001182    0.09794 5.171E-005   0.04285
s121    0.1203      1.002   0.000122     0.1014 5.31E-005   0.04414
s25     0.1201          1  6.104E-005    0.05083 0.0001158   0.09643
s30     0.1205      1.003  7.306E-005    0.06063 3.11E-005   0.02581
s35     0.1203      1.002  3.643E-005    0.03029 5.74E-005   0.04772
s40     0.1197      0.997  3.027E-005    0.02528 0.0001257     0.105
s66     0.1197     0.9969  5.934E-005    0.04957 7.257E-005   0.06062
s71     0.1202      1.001  7.145E-005    0.05943 2.809E-005   0.02336
s76     0.1203      1.002  0.0001062     0.0883 5.875E-005   0.04883
s81     0.1198     0.9979  0.0001193    0.09957 0.0001547    0.1291
s107    0.1201          1  5.018E-005    0.04177 4.926E-005     0.041
s112    0.1206      1.004  6.648E-005    0.05511 2.879E-005   0.02387
s117    0.1207      1.005  3.723E-005    0.03084 2.593E-005   0.02148
s122    0.1203      1.002  1.258E-005    0.01046 8.786E-005   0.07304
s26     0.1201          1  6.749E-005     0.0562 5.937E-005   0.04944
s31     0.1203      1.002  4.448E-005    0.03697 3.512E-005   0.02919
s36     0.1207      1.005  1.409E-005    0.01168 2.472E-006  0.002049
s41     0.1203      1.001  5.015E-005     0.0417  0.000102   0.08485
s67     0.1205      1.003  4.389E-005    0.03643 5.155E-005   0.04279
s72     0.1206      1.005  2.768E-005    0.02295 3.605E-005   0.02988
s77     0.1209      1.007  1.067E-005   0.008822 1.077E-005  0.008911
s82     0.1204      1.003  4.04E-005    0.03356  7.5E-005    0.0623
s108    0.1204      1.003  1.726E-006   0.001434 4.954E-005   0.04114
s113    0.1205      1.004  1.776E-005    0.01473 3.524E-005   0.02924
s118    0.1208      1.006  3.927E-005    0.03251 1.122E-005   0.00929
s123    0.1201          1  3.339E-005    0.02781 0.0001094   0.09112
p4       139.4       1.05   0.000452  0.0003242 0.0001474 0.0001058
p5       8.179      1.027   0.002084    0.02548 1.552E-006 1.897E-005
p8       139.4       1.05   0.000453   0.000325  0.000148 0.0001061
p9       8.176      1.026   0.002073    0.02535 6.223E-007 7.612E-006
s148    0.1206      1.004  4.436E-005     0.0368 1.886E-005   0.01565
s145    0.1206      1.004  4.137E-006    0.00343 4.121E-005   0.03417
s152    0.1205      1.004  6.083E-005    0.05046 4.46E-005     0.037
s149    0.1207      1.005  5.506E-005    0.04561 1.262E-005   0.01046
s156    0.1207      1.005  6.41E-005    0.05312 3.29E-005   0.02726
s153    0.1207      1.005  6.553E-005    0.05427 3.674E-005   0.03043
s160    0.1205      1.003  7.302E-005    0.06059 3.109E-005    0.0258
s157    0.1203      1.002  2.862E-005    0.02379 9.147E-006  0.007603
s147    0.1207      1.005  6.07E-005    0.05028 3.933E-005   0.03257
s146    0.1203      1.002  3.997E-005    0.03321 7.321E-005   0.06084
s151    0.1202      1.001  2.909E-005     0.0242 7.821E-005   0.06509
s150    0.1204      1.003  4.427E-005    0.03676 5.45E-005   0.04525
s155    0.1203      1.002  4.779E-005    0.03972 2.76E-005   0.02294
s154    0.1203      1.002  3.641E-005    0.03027 5.737E-005   0.04769
s159    0.1206      1.004  1.443E-005    0.01197 6.982E-005   0.05791
s158    0.1207      1.005  1.409E-005    0.01168 2.471E-006  0.002048
s164    0.1207      1.005  6.578E-005     0.0545 2.184E-005   0.01809
s161    0.1204      1.003  5.265E-005    0.04371 4.486E-005   0.03725
s168    0.1203      1.002  5.736E-005    0.04768 9.134E-005   0.07593
s165    0.1202      1.001  2.485E-005    0.02068 2.219E-005   0.01846
s172    0.1203      1.002  1.077E-005   0.008952 2.796E-005   0.02325
s169    0.1203      1.002  4.801E-005    0.03992 2.899E-005    0.0241
s176    0.1202      1.001  7.144E-005    0.05941 2.808E-005   0.02335
s173     0.121      1.007  2.01E-005    0.01661 3.251E-005   0.02688
s163    0.1207      1.005  8.286E-006   0.006863 2.778E-005   0.02301
s162    0.1204      1.003  4.945E-005    0.04106 3.502E-005   0.02907
s167    0.1204      1.002  6.008E-005    0.04991 1.505E-005    0.0125
s166    0.1203      1.002  1.694E-005    0.01408 5.581E-005   0.04639
s171    0.1205      1.004  8.361E-005    0.06938 3.24E-005   0.02688
s170    0.1203      1.002  0.0001062    0.08828 5.873E-005   0.04881
s175    0.1209      1.007  5.696E-005    0.04711 2.973E-005   0.02459
s174    0.1209      1.007  1.068E-005   0.008833 1.077E-005  0.008906
s180    0.1212      1.009  4.007E-005    0.03307 1.398E-005   0.01154
s177    0.1206      1.004  4.005E-005     0.0332 3.985E-005   0.03304
s184    0.1206      1.004  8.879E-005    0.07364 2.869E-005    0.0238
s181    0.1204      1.002  6.663E-005    0.05536 4.792E-005   0.03981
s188    0.1205      1.003  0.0001065     0.0884 9.52E-006    0.0079
s185    0.1207      1.005  9.253E-005    0.07667 4.322E-005   0.03581
s192    0.1206      1.004  6.646E-005     0.0551 2.877E-005   0.02385
s189    0.1211      1.008  4.972E-005    0.04107 1.32E-005    0.0109
s179     0.121      1.007  4.715E-005    0.03898 1.453E-005   0.01201
s178    0.1206      1.005  7.319E-005    0.06066 4.88E-005   0.04045
s183    0.1207      1.005  7.376E-005    0.06111 3.887E-005   0.03221
s182    0.1207      1.005  0.0001182    0.09791 5.168E-005   0.04282
s187    0.1208      1.006  7.697E-005    0.06372 3.07E-005   0.02541
s186    0.1207      1.005  3.722E-005    0.03084 2.591E-005   0.02147
s191    0.1207      1.005  3.575E-005    0.02962 2.005E-005   0.01661
s190    0.1208      1.006  3.924E-005    0.03249 1.121E-005  0.009285
s196    0.2798       1.01  0.0008141     0.2909 0.0001226   0.04383
s197    0.2798       1.01  0.0008137     0.2908 0.0001228    0.0439
s201    0.2796      1.009  0.0002759    0.09868 8.976E-005    0.0321
s202    0.2796      1.009  0.0002759    0.09866 8.968E-005   0.03207
s207    0.2786      1.005  0.0008247      0.296  0.000252   0.09046
s208    0.2786      1.005  0.0008246      0.296 0.0002519   0.09044
s209    0.2786      1.005  0.0008246      0.296 0.0002521   0.09051
s214    0.2792      1.007  3.697E-005    0.01324 0.0001159    0.0415
s215    0.2792      1.007  3.703E-005    0.01327 0.0001158   0.04147
s216    0.2792      1.007  3.721E-005    0.01333 0.0001158   0.04148
s221    0.2768      0.999  0.0002235    0.08072 0.0001287   0.04647
s222    0.2768      0.999  0.0002232    0.08061 0.0001285    0.0464
s223    0.2768      0.999  0.0002233    0.08064 0.0001282    0.0463
s228    0.2782      1.004  0.0003847     0.1383 0.0003448    0.1239
s229    0.2782      1.004  0.0003848     0.1383 0.0003448     0.124
s230    0.2782      1.004  0.0003848     0.1383 0.0003451     0.124
s234    0.2823      1.019  7.208E-005    0.02553 7.967E-005   0.02822
s235    0.2823      1.019  7.227E-005     0.0256 7.946E-005   0.02814
s238    0.2758     0.9952  0.0006256     0.2269  0.000165   0.05982
s240    0.2758     0.9952  0.0006256     0.2268 0.0001647   0.05971
